data/case8d.m
function mpc = case8
%%AUTHORS:Meisam Mahdavi, Hassan Haes Alhelou, Paul Cuffe
%%PAPER TITLE:"Test Systems for Reconfiguration and Operation of Electric Power Distribution Networks"
%CASE8:TEST SYSTEM 8: "59-BUS DISTRIBUTION NETWORK"
%
%  DATA from our paper: "Test Systems for Reconfiguration and Operation of Electric Power Distribution Networks" 
%      
% 
%  02/02/2021       59-BUS DISTRIBUTION NETWORK    By H.H. Alhelou & P.Cuffe

%   MATPOWER

%% MATPOWER Case Format : Version 2
mpc.version = '2';

%%-----  Power Flow Data  -----%%
%% system MVA base
mpc.baseMVA = 1;
%% system MVA base
Vnom  = 33;	%Nominal line voltage (kV)
Vbase = 33;	%Base line voltage (kV)
Sbase = 1000;	%3-Phase base power (kVA)

%% bus data
%	bus_i	type	Pd	Qd	Gs	Bs	area	Vm	Va	baseKV	zone	Vmax	Vmin
mpc.bus = [ %% (Pd and Qd are specified in kW & kVAr here, converted to MW & MVAr below)
		1	3		0		0      	0	0	1	1	0	33	1	1.1	0.9;
		2	1		72		54      0	0	1	1	0	33	1	1.1	0.9;
		3	1		51		38.25   0	0	1	1	0	33	1	1.1	0.9;
		4	1		50		37.5    0	0	1	1	0	33	1	1.1	0.9;
		5	1		50		37.5    0	0	1	1	0	33	1	1.1	0.9;
		6	1		85		63.75   0	0	1	1	0	33	1	1.1	0.9;
		7	1		108		81      0	0	1	1	0	33	1	1.1	0.9;
		8	1		0		0       0	0	1	1	0	33	1	1.1	0.9;
		9	1		80		60      0	0	1	1	0	33	1	1.1	0.9;
		10	1		320		240     0	0	1	1	0	33	1	1.1	0.9;
		11	1		288		216     0	0	1	1	0	33	1	1.1	0.9;
		12	1		125		93.75   0	0	1	1	0	33	1	1.1	0.9;
		13	1		108		81      0	0	1	1	0	33	1	1.1	0.9;
		14	1		200		150     0	0	1	1	0	33	1	1.1	0.9;
		15	1		0		0       0	0	1	1	0	33	1	1.1	0.9;
		16	1		95		71.25   0	0	1	1	0	33	1	1.1	0.9;
		17	1		200		150     0	0	1	1	0	33	1	1.1	0.9;
		18	1		225		168.75  0	0	1	1	0	33	1	1.1	0.9;
		19	1		100		75      0	0	1	1	0	33	1	1.1	0.9;
		20	1		231		173.25  0	0	1	1	0	33	1	1.1	0.9;
		21	1		410		307.5   0	0	1	1	0	33	1	1.1	0.9;
		22	1		450		337.5   0	0	1	1	0	33	1	1.1	0.9;
		23	1		230		172.5   0	0	1	1	0	33	1	1.1	0.9;
		24	1		262		196.5   0	0	1	1	0	33	1	1.1	0.9;
		25	1		250		187.5   0	0	1	1	0	33	1	1.1	0.9;
		26	1		400		310.43  0	0	1	1	0	33	1	1.1	0.9;
		27	1		203		152.25  0	0	1	1	0	33	1	1.1	0.9;
		28	1		200		150     0	0	1	1	0	33	1	1.1	0.9;
		29	1		320		240     0	0	1	1	0	33	1	1.1	0.9;
		30	1		200		150     0	0	1	1	0	33	1	1.1	0.9;
		31	1		260		199.5   0	0	1	1	0	33	1	1.1	0.9;
		32	1		240		186.25  0	0	1	1	0	33	1	1.1	0.9;
		33	1		150		112.5   0	0	1	1	0	33	1	1.1	0.9;
		34	1		0		0       0	0	1	1	0	33	1	1.1	0.9;
		35	1		158		118.5   0	0	1	1	0	33	1	1.1	0.9;
		36	1		40		30      0	0	1	1	0	33	1	1.1	0.9;
		37	1		190		142.5   0	0	1	1	0	33	1	1.1	0.9;
		38	1		87		65.25   0	0	1	1	0	33	1	1.1	0.9;
		39	1		450		337.5   0	0	1	1	0	33	1	1.1	0.9;
		40	1		0		0       0	0	1	1	0	33	1	1.1	0.9;
		41	1		420		315     0	0	1	1	0	33	1	1.1	0.9;
		42	1		100		75      0	0	1	1	0	33	1	1.1	0.9;
		43	1		0		0       0	0	1	1	0	33	1	1.1	0.9;
		44	1		199		149.25  0	0	1	1	0	33	1	1.1	0.9;
		45	1		80		60      0	0	1	1	0	33	1	1.1	0.9;
		46	1		420		315     0	0	1	1	0	33	1	1.1	0.9;
		47	1		0		0       0	0	1	1	0	33	1	1.1	0.9;
		48	1		141		105.75  0	0	1	1	0	33	1	1.1	0.9;
		49	1		165		123.75  0	0	1	1	0	33	1	1.1	0.9;
		50	1		0		0       0	0	1	1	0	33	1	1.1	0.9;
		51	1		300		225     0	0	1	1	0	33	1	1.1	0.9;
		52	1		0		0       0	0	1	1	0	33	1	1.1	0.9;
		53	1		100		80.23   0	0	1	1	0	33	1	1.1	0.9;
		54	1		178		133.5   0	0	1	1	0	33	1	1.1	0.9;
		55	1		0		0       0	0	1	1	0	33	1	1.1	0.9;
		56	1		235		176.25  0	0	1	1	0	33	1	1.1	0.9;
		57	1		154		123.55  0	0	1	1	0	33	1	1.1	0.9;
		58	1		0		0       0	0	1	1	0	33	1	1.1	0.9;
		59	1		310		248.71  0	0	1	1	0	33	1	1.1	0.9;
];

%% generator data
%	bus	Pg	Qg	Qmax	Qmin	Vg	mBase	status	Pmax	Pmin	Pc1	Pc2	Qc1min	Qc1max	Qc2min	Qc2max	ramp_agc	ramp_10	ramp_30	ramp_q	apf
mpc.gen = [
	1	0	0	10	-10	1	100	1	10	0	0	0	0	0	0	0	0	0	0	0	0;
];

%% branch data
%	fbus	tbus	r	x	b	rateA	rateB	rateC	ratio	angle	status	angmin	angmax
mpc.branch = [  %% (r and x specified in ohms here, converted to p.u. below)
		1	2		0.081		0.061	0	0	0	0	0	0	1	-360	360;
		2	3		0.135		0.101	0	0	0	0	0	0	1	-360	360;
		3	4		0.027		0.020	0	0	0	0	0	0	1	-360	360;
		4	5		0.027		0.020	0	0	0	0	0	0	1	-360	360;
		5	6		0.027		0.020	0	0	0	0	0	0	1	-360	360;
		6	7		0.027		0.020	0	0	0	0	0	0	1	-360	360;
		7	8		0.540		0.405	0	0	0	0	0	0	1	-360	360;
		8	9		0.540		0.405	0	0	0	0	0	0	1	-360	360;
		9	10		0.270		0.203	0	0	0	0	0	0	1	-360	360;
		10	11		0.540		0.405	0	0	0	0	0	0	1	-360	360;
		11	12		0.540		0.405	0	0	0	0	0	0	1	-360	360;
		8	13		0.027		0.020	0	0	0	0	0	0	1	-360	360;
		13	14		0.027		0.020	0	0	0	0	0	0	1	-360	360;
		8	15		0.027		0.020	0	0	0	0	0	0	1	-360	360;
		15	16		0.027		0.020	0	0	0	0	0	0	1	-360	360;
		15	17		0.027		0.020	0	0	0	0	0	0	1	-360	360;
		17	18		0.027		0.020	0	0	0	0	0	0	1	-360	360;
		18	19		0.027		0.020	0	0	0	0	0	0	1	-360	360;
		19	20		0.027		0.020	0	0	0	0	0	0	1	-360	360;
		20	21		0.027		0.020	0	0	0	0	0	0	1	-360	360;
		21	22		0.270		0.203	0	0	0	0	0	0	1	-360	360;
		22	23		0.027		0.020	0	0	0	0	0	0	1	-360	360;
		23	24		0.027		0.020	0	0	0	0	0	0	1	-360	360;
		24	25		0.027		0.020	0	0	0	0	0	0	1	-360	360;
		25	26		0.270		0.203	0	0	0	0	0	0	1	-360	360;
		26	27		0.027		0.020	0	0	0	0	0	0	1	-360	360;
		27	28		0.027		0.020	0	0	0	0	0	0	1	-360	360;
		28	29		0.027		0.020	0	0	0	0	0	0	1	-360	360;
		29	30		0.027		0.020	0	0	0	0	0	0	1	-360	360;
		30	31		0.027		0.020	0	0	0	0	0	0	1	-360	360;
		31	32		0.027		0.020	0	0	0	0	0	0	1	-360	360;
		31	33		0.135		0.101	0	0	0	0	0	0	1	-360	360;
		33	34		0.027		0.020	0	0	0	0	0	0	1	-360	360;
		34	35		0.054		0.041	0	0	0	0	0	0	1	-360	360;
		35	36		0.027		0.020	0	0	0	0	0	0	1	-360	360;
		36	37		0.027		0.020	0	0	0	0	0	0	1	-360	360;
		37	38		0.027		0.020	0	0	0	0	0	0	1	-360	360;
		34	39		0.027		0.020	0	0	0	0	0	0	1	-360	360;
		39	40		0.027		0.020	0	0	0	0	0	0	1	-360	360;
		40	41		0.054		0.041	0	0	0	0	0	0	1	-360	360;
		40	42		0.054		0.041	0	0	0	0	0	0	1	-360	360;
		42	43		0.027		0.020	0	0	0	0	0	0	1	-360	360;
		43	44		0.027		0.020	0	0	0	0	0	0	1	-360	360;
		44	45		0.027		0.020	0	0	0	0	0	0	1	-360	360;
		45	46		0.027		0.020	0	0	0	0	0	0	1	-360	360;
		43	47		0.270		0.203	0	0	0	0	0	0	1	-360	360;
		47	48		0.027		0.020	0	0	0	0	0	0	1	-360	360;
		48	49		0.270		0.203	0	0	0	0	0	0	1	-360	360;
		47	50		0.027		0.020	0	0	0	0	0	0	1	-360	360;
		50	51		0.027		0.020	0	0	0	0	0	0	1	-360	360;
		51	52		0.027		0.020	0	0	0	0	0	0	1	-360	360;
		52	53		0.027		0.020	0	0	0	0	0	0	1	-360	360;
		53	54		0.081		0.061	0	0	0	0	0	0	1	-360	360;
		52	55		0.540		0.405	0	0	0	0	0	0	1	-360	360;
		55	56		0.135		0.101	0	0	0	0	0	0	1	-360	360;
		56	57		0.054		0.041	0	0	0	0	0	0	1	-360	360;
		57	58		0.027		0.020	0	0	0	0	0	0	1	-360	360;
		58	59		0.054		0.041	0	0	0	0	0	0	1	-360	360;
		16	26		0.500		0.500	0	0	0	0	0	0	0	-360	360;
		14	51		0.500		0.500	0	0	0	0	0	0	0	-360	360;
		12	32		0.500		0.500	0	0	0	0	0	0	0	-360	360;
		38	57		0.500		0.500	0	0	0	0	0	0	0	-360	360;
		41	54		0.500		0.500	0	0	0	0	0	0	0	-360	360;
];


%%-----  OPF Data  -----%%
%% generator cost data
%	1	startup	shutdown	n	x1	y1	...	xn	yn
%	2	startup	shutdown	n	c(n-1)	...	c0
mpc.gencost = [
	2	0	0	3	0	20	0;
];


%% convert branch impedances from Ohms to p.u.
[PQ, PV, REF, NONE, BUS_I, BUS_TYPE, PD, QD, GS, BS, BUS_AREA, VM, ...
    VA, BASE_KV, ZONE, VMAX, VMIN, LAM_P, LAM_Q, MU_VMAX, MU_VMIN] = idx_bus;
[F_BUS, T_BUS, BR_R, BR_X, BR_B, RATE_A, RATE_B, RATE_C, ...
    TAP, SHIFT, BR_STATUS, PF, QF, PT, QT, MU_SF, MU_ST, ...
    ANGMIN, ANGMAX, MU_ANGMIN, MU_ANGMAX] = idx_brch;
Vbase = mpc.bus(1, BASE_KV) * 1e3;      %% in Volts
Sbase = mpc.baseMVA * 1e6;              %% in VA
mpc.branch(:, [BR_R BR_X]) = mpc.branch(:, [BR_R BR_X]) / (Vbase^2 / Sbase);

%% convert loads from kW to MW
mpc.bus(:, [PD, QD]) = mpc.bus(:, [PD, QD]) / 1e3;


